Input file: ciat_ner_diseases.jsonl
Input file: ciat_ner_news.jsonl
Output file: ciat_ner_diseases-output-iob-tags-full_doc_train.txt
Total number of annotation documents: 319
Total number of tokens: 171301
Longest sequence of tokens: 4010
