Input file: ciat_ner_diseases.jsonl
Input file: ciat_ner_news.jsonl
Output file: ciat_ner_diseases-output-iob-tags-full_doc_validate.txt
Total number of annotation documents: 69
Total number of tokens: 33299
Longest sequence of tokens: 1585
