Input file: ciat_ner_diseases.jsonl
Input file: ciat_ner_news.jsonl
Output file: ciat_ner_diseases-output-iob-tags-10_train.txt
Total number of annotation documents: 319
Total number of tokens: 171304
Longest sequence of tokens: 71
