Input file: ciat_ner_diseases.jsonl
Input file: ciat_ner_news.jsonl
Output file: ciat_ner_diseases-output-iob-tags-30_test.txt
Total number of annotation documents: 68
Total number of tokens: 32227
Longest sequence of tokens: 95
